%chk=\\smb-isl01.fsu.edu\citrix\bc19i\Desktop\Comp Results\Optimization Files\Mark\CoGEF\coGEF1.chk
# opt b3lyp/6-31+g(d) geom=connectivity int=ultrafine

Title Card Required

0 1
 C                  0.74698500   -2.80546500    1.70303400
 C                  2.21227400   -3.28830200    1.53717600
 C                  2.10871100   -3.08377000   -0.01630900
 C                  0.55996400   -2.99260600    0.17243900
 H                  0.09277100   -3.39555900    2.35052000
 H                  0.68567900   -1.75553500    1.99797900
 H                  2.34260800   -4.34654300    1.78322600
 H                  2.98443200   -2.71009200    2.05204800
 H                  2.45673800   -3.91626500   -0.62925200
 H                  0.12418800   -3.97837200   -0.03739600
 C                 -0.22882500   -2.00022100   -0.64740200
 C                  2.82527700   -1.85363900   -0.52399900
 O                  0.06270300   -1.62527300   -1.76419800
 O                  3.73250100   -1.86997900   -1.32806000
 O                 -1.34791300   -1.60659400    0.00426800
 O                  2.38108400   -0.71440600    0.06672000
 C                 -2.21827000   -0.70130300   -0.70630900
 H                 -1.68224100    0.22656800   -0.92664800
 H                 -2.52778700   -1.15441900   -1.65270100
 C                 -3.40283100   -0.45684400    0.21291100
 H                 -3.94207400   -1.38387500    0.42917200
 H                 -3.09035500   -0.01003000    1.16156100
 C                  2.99282300    0.51117100   -0.38248600
 H                  2.90818900    0.58399600   -1.47008600
 H                  4.05394600    0.51276500   -0.11492900
 C                  2.23839300    1.63029000    0.31432700
 H                  1.18227400    1.63875500    0.02984600
 H                  2.30267800    1.54436500    1.40357400
 O                 -4.26539900    0.45591600   -0.49347200
 O                  2.86504000    2.85638000   -0.11091500
 C                 -5.41868600    0.79937700    0.13654000
 C                  2.30880100    4.00507800    0.35043100
 O                  1.33995100    4.02442300    1.08023300
 O                 -5.73034300    0.36706200    1.22565900
 C                 -6.22207500    1.77056700   -0.69212500
 H                 -6.41159600    1.35593900   -1.68774100
 H                 -7.16660600    1.98201400   -0.18906200
 H                 -5.65909000    2.70092900   -0.82625400
 C                  3.05136900    5.21344400   -0.16350000
 H                  2.58049300    6.11950100    0.22023700
 H                  4.09890200    5.17518900    0.15441000
 H                  3.04241000    5.22377300   -1.25875200

 1 2 1.0 4 1.0 5 1.0 6 1.0
 2 3 1.0 7 1.0 8 1.0
 3 4 1.0 9 1.0 12 1.0
 4 10 1.0 11 1.0
 5
 6
 7
 8
 9
 10
 11 13 2.0 15 1.0
 12 14 2.0 16 1.0
 13
 14
 15 17 1.0
 16 23 1.0
 17 18 1.0 19 1.0 20 1.0
 18
 19
 20 21 1.0 22 1.0 29 1.0
 21
 22
 23 24 1.0 25 1.0 26 1.0
 24
 25
 26 27 1.0 28 1.0 30 1.0
 27
 28
 29 31 1.0
 30 32 1.0
 31 34 2.0 35 1.0
 32 33 2.0 39 1.0
 33
 34
 35 36 1.0 37 1.0 38 1.0
 36
 37
 38
 39 40 1.0 41 1.0 42 1.0
 40
 41
 42

